115
Energy = -1891.141792241
Y     7.4875391    7.6362947    8.1028699 
N     6.4211683    6.7348456   10.0399532 
N     8.4719144    7.6840021   10.2729049 
N     6.4316265    9.7378386    7.9150850 
N     8.4744709    9.5076428    6.9539865 
N     8.4583539    5.8636113    6.8347437 
N     6.2131281    6.2102086    6.6714587 
C     7.2763992    5.4976508    6.3633438 
C     7.4234203    7.0861036   10.8169603 
C     7.4313086   10.2664601    7.2237652 
H     7.3842065   11.3188688    6.8815427 
H     7.2075416    4.5908163    5.7263913 
H     7.4167578    6.8942641   11.9108326 
C    12.5780136    4.9117859    6.0499491 
C    11.6475987    5.1402259    4.8612158 
C    10.3744926    5.8698301    5.2823585 
C     9.6356195    5.1455487    6.4159217 
C    10.5809133    4.9080764    7.5954343 
C    11.8570681    4.1805152    7.1800346 
H    12.9384954    5.8908196    6.4221617 
H    13.4742836    4.3473392    5.7350280 
H    12.1663051    5.7077212    4.0676401 
H    11.3786295    4.1612936    4.4176186 
H     9.6895335    5.9921295    4.4237620 
H    10.6244653    6.8900826    5.6321238 
H     9.3350910    4.1474066    6.0233160 
H    10.0462572    4.3463724    8.3821370 
H    10.8397778    5.8910763    8.0352070 
H    11.6014892    3.1565101    6.8434780 
H    12.5262005    4.0617915    8.0512372 
C     2.4918575    5.7023208    4.5271320 
C     2.6264839    6.7998220    5.5787870 
C     4.0913680    7.0915952    5.8867848 
C     4.8615314    5.8397384    6.3201444 
C     4.7188542    4.7432232    5.2596911 
C     3.2519113    4.4479368    4.9473505 
H     2.8986606    6.0690883    3.5647162 
H     1.4279012    5.4642870    4.3476215 
H     2.1181528    7.7218566    5.2440144 
H     2.1130812    6.4801373    6.5071772 
H     4.1820237    7.8587878    6.6770015 
H     4.5912066    7.5085932    4.9910919 
H     4.3581106    5.4592167    7.2373163 
H     5.2116893    3.8129636    5.5951403 
H     5.2383423    5.0659262    4.3355941 
H     2.7702315    4.0174167    5.8466583 
H     3.1859197    3.6744097    4.1611672 
C     2.7479116    5.6288684   12.0611224 
C     3.9894189    4.7676336   12.2807609 
C     5.2695184    5.5271018   11.9353764 
C     5.2378029    6.0451621   10.4943595 
C     3.9913532    6.9162302   10.2819150 
C     2.7035001    6.1783112   10.6374528 
H     2.7617111    6.4742716   12.7766885 
H     1.8337898    5.0482975   12.2801608 
H     4.0319545    4.4134663   13.3263538 
H     3.9221373    3.8620826   11.6474905 
H     6.1502606    4.8758617   12.0843418 
H     5.3786979    6.3789764   12.6347344 
H     5.1131957    5.1546334    9.8422999 
H     3.9660263    7.2578320    9.2314506 
H     4.0942246    7.8250543   10.9063485 
H     2.5587035    5.3398486    9.9279246 
H     1.8333361    6.8467127   10.5084242 
C    12.0858882    9.6312375   11.5543217 
C    12.0468233    8.1050867   11.5325092 
C    10.8944184    7.5867842   10.6757725 
C     9.5410099    8.1539987   11.1166694 
C     9.5946621    9.6867937   11.1509915 
C    10.7465263   10.2088578   12.0065485 
H    12.3171069   10.0030028   10.5367243 
H    12.9006245    9.9866172   12.2107330 
H    13.0059512    7.6993051   11.1634621 
H    11.9294236    7.7302680   12.5684462 
H    10.8507282    6.4834859   10.6995603 
H    11.0600793    7.8735557    9.6192536 
H     9.3614079    7.8065570   12.1595180 
H     8.6266249   10.0739250   11.5169637 
H     9.7026502   10.0491986   10.1100111 
H    10.5716195    9.9311337   13.0646616 
H    10.7720509   11.3131243   11.9766956 
C    12.0623917   11.4691129    5.5058290 
C    12.1356305   10.0548627    6.0751081 
C    10.9081382    9.7335952    6.9224776 
C     9.5973963    9.9362827    6.1515849 
C     9.5358318   11.3661178    5.6054385 
C    10.7574966   11.6875494    4.7446182 
H    12.9281112   11.6673961    4.8487797 
H    12.1256495   12.1991282    6.3365723 
H    12.2016348    9.3281074    5.2414511 
H    13.0553883    9.9257202    6.6733936 
H    10.8869465   10.3812337    7.8201759 
H    10.9521077    8.6919781    7.2886917 
H     9.4891388   12.0813645    6.4503958 
H     8.6147861   11.5107319    5.0117720 
H    10.6949565   12.7280510    4.3786663 
H    10.7476984   11.0405580    3.8465239 
H     9.6460350    9.2633323    5.2688387 
C     3.6421650   12.9893091    8.6027348 
C     3.2936551   11.9204714    7.5687494 
C     4.5347824   11.1559098    7.1126406 
C     5.2871945   10.5350898    8.2991984 
C     5.6316943   11.6154701    9.3349789 
C     4.3941299   12.3872278    9.7880667 
H     2.7272510   13.5035325    8.9482129 
H     4.2751868   13.7630134    8.1254850 
H     2.5717770   11.2071095    8.0128525 
H     2.7853461   12.3758200    6.6997245 
H     5.2071854   11.8497744    6.5717222 
H     4.2640812   10.3584025    6.3979247 
H     6.3624669   12.3195772    8.8896542 
H     6.1367296   11.1405107   10.1953520 
H     4.6783268   13.1772681   10.5063603 
H     3.7187689   11.6996262   10.3339522 
H     4.5810431    9.8390685    8.7919920 
