118
Energy = -1967.442240713
Y     7.9864607    7.8607675    8.6750540 
N     6.3028556    7.1358342   10.2739245 
N     8.1904027    8.1594977   11.0306875 
N     6.8206601    9.9204772    8.2459185 
N     8.6949093    9.4957143    7.0551046 
N     9.1976864    5.6779192    6.1645962 
N     7.1070278    6.3684073    6.9198217 
C     7.8729394    5.7395543    6.0761834 
C     7.0697170    7.5023836   11.2822636 
C     7.6915869   10.3048964    7.3275449 
H     7.5821438   11.2785144    6.8076191 
H     7.4364669    5.2072126    5.2125811 
H     6.8006127    7.2455726   12.3284364 
C    12.3221717    4.8776249    3.3290732 
C    10.8780058    4.8061603    2.8397061 
C     9.9334616    5.5349253    3.7925714 
C    10.0433174    4.9801076    5.2169974 
C    11.4890974    5.0589722    5.7047995 
C    12.4491585    4.3492887    4.7556515 
H    12.6590637    5.9322609    3.3005218 
H    12.9875096    4.3138528    2.6513852 
H    10.7899916    5.2323642    1.8247393 
H    10.5730226    3.7442301    2.7582565 
H     8.8923539    5.4541917    3.4303932 
H    10.1763337    6.6151852    3.8182372 
H     9.7572115    3.9069488    5.1837549 
H    11.5565796    4.6336593    6.7220349 
H    11.7666248    6.1280893    5.7861292 
H    12.2365022    3.2631958    4.7644634 
H    13.4856323    4.4640857    5.1180818 
C     3.1346508    5.7450917    5.2547163 
C     3.7360805    7.1489704    5.2608276 
C     5.2541299    7.1210986    5.4259110 
C     5.6659600    6.3334827    6.6755179 
C     5.0785944    4.9171390    6.6428261 
C     3.5597258    4.9486999    6.4868309 
H     3.4656248    5.2095016    4.3426921 
H     2.0324822    5.8030605    5.2017594 
H     3.4658893    7.6894590    4.3358601 
H     3.2972483    7.7273887    6.0971605 
H     5.6555531    8.1478440    5.4989122 
H     5.7196303    6.6581364    4.5331397 
H     5.2031968    6.8484543    7.5378857 
H     5.3707947    4.3791702    7.5630253 
H     5.5164171    4.3528169    5.7963553 
H     3.1132713    5.4090658    7.3898071 
H     3.1610003    3.9195116    6.4359533 
C     2.2983488    6.0492364   11.5826344 
C     3.4347866    5.0456662   11.7641705 
C     4.7956087    5.7408042   11.7622694 
C     5.0084018    6.5202210   10.4575909 
C     3.8699224    7.5401689   10.2843047 
C     2.4900670    6.8848799   10.3197543 
H     2.2727333    6.7265398   12.4586551 
H     1.3230202    5.5302846   11.5616580 
H     3.2983774    4.4776260   12.7019437 
H     3.4052137    4.3014736   10.9435521 
H     5.6072128    5.0031317   11.8992364 
H     4.8374164    6.4305196   12.6272558 
H     4.8944526    5.7771284    9.6413715 
H     4.0142899    8.0953464    9.3404012 
H     3.9543126    8.2894791   11.0960463 
H     2.3726045    6.2343830    9.4308991 
H     1.7003457    7.6546123   10.2453532 
C    10.8851223   10.2322236   13.6813511 
C    11.4511241    9.4075377   12.5273970 
C    10.3829017    9.0925581   11.4834165 
C     9.1492582    8.4136323   12.0829716 
C     8.5969893    9.2669426   13.2341735 
C     9.6623303    9.5525132   14.2918030 
H    10.5948446   11.2332979   13.3080635 
H    11.6592689   10.3980160   14.4523445 
H    12.2978135    9.9368316   12.0547357 
H    11.8617063    8.4604291   12.9284235 
H    10.7962741    8.4469480   10.6884415 
H    10.0548533   10.0285897   10.9887351 
H     9.4943622    7.4514983   12.5280361 
H     7.7315857    8.7642546   13.7016921 
H     8.2198385   10.2176011   12.8088223 
H     9.9751148    8.5996179   14.7625706 
H     9.2363445   10.1725595   15.1010197 
C    12.0554493   11.1404015    4.8764676 
C    12.2181971    9.8461924    5.6701721 
C    11.0962708    9.6719418    6.6901855 
C     9.7014664    9.7565963    6.0549100 
C     9.5580911   11.0667814    5.2746549 
C    10.6705567   11.2218395    4.2383078 
H    12.8402903   11.2218676    4.1026654 
H    12.1944350   12.0049334    5.5554515 
H    12.2132421    8.9864174    4.9695450 
H    13.2009985    9.8258868    6.1754327 
H    11.1670464   10.4603650    7.4649529 
H    11.1767657    8.7038127    7.2139829 
H     9.5980915   11.9210951    5.9792371 
H     8.5706221   11.1097198    4.7788161 
H    10.5510097   12.1781689    3.6982498 
H    10.5736861   10.4202323    3.4792600 
H     9.6500346    8.9371662    5.3029653 
C     4.1103791   13.2707277    8.7208416 
C     3.5728133   11.9549108    8.1625146 
C     4.7013489   11.0777265    7.6242982 
C     5.7721025   10.8086305    8.6923087 
C     6.3021336   12.1343110    9.2589022 
C     5.1783958   13.0236175    9.7846378 
H     3.2862465   13.8792775    9.1356130 
H     4.5499684   13.8591828    7.8913527 
H     3.0452829   11.4066716    8.9683816 
H     2.8232679   12.1454451    7.3729554 
H     5.1744004   11.5742414    6.7540043 
H     4.3057050   10.1128686    7.2571024 
H     6.8504056   12.6754156    8.4628678 
H     7.0351546   11.9156940   10.0564308 
H     5.5904247   13.9822373   10.1482907 
H     4.7103649   12.5334346   10.6604289 
H     5.2624117   10.2872189    9.5249436 
O     9.8240916    6.7557205    8.5245824 
H     9.6218354    6.0781384    7.0497665 
H    10.6921290    6.6797542    8.9333533 
