73
Energy = -1192.056087565
Y     7.7853181    7.9507514    7.7536248 
N     6.6069286    6.8434074    9.5080496 
N     8.6426370    7.7529153    9.9662408 
N     6.6237587   10.0321707    7.7563766 
N     8.6862580    9.9457617    6.7914627 
N     8.6824326    6.1321674    6.5018297 
N     6.5982163    6.8884361    5.9826047 
C     7.5732381    6.0250337    5.7882081 
C     7.5643278    7.1026435   10.3738192 
C     7.5914461   10.6262837    7.0880646 
C     5.3821568    6.8040330    5.2219873 
C     5.1233921    8.0607824    4.4001714 
H     4.1595811    7.9955338    3.8640361 
H     5.9257303    8.2143872    3.6573085 
H     5.0976663    8.9493636    5.0553612 
C     9.7647648    5.1617784    6.3595037 
C    10.8686662    5.5726604    7.3355501 
C    10.3297497    5.1702799    4.9316356 
C     9.2848431    3.7478857    6.7202682 
H    11.7203489    4.8709575    7.2935467 
H    10.4808725    5.5894152    8.3695212 
H    10.1159722    3.0216537    6.6705142 
H     8.4965879    3.3995336    6.0295500 
H     8.8704527    3.7342450    7.7436002 
H     9.5703064    4.8582413    4.1933183 
H    11.1871544    4.4797639    4.8399431 
H    10.6711726    6.1845041    4.6605572 
C     9.6907466    8.1370532   10.9081324 
C     9.1463840    9.1295139   11.9460930 
C    10.7954981    8.8192564   10.0994351 
C    10.2794359    6.9095680   11.6191024 
H     8.7209818   10.0150809   11.4420244 
H     9.9436202    9.4666524   12.6324679 
H    10.6650258    6.1865644   10.8791839 
H     9.5237534    6.3937168   12.2373792 
H    11.1100944    7.2002286   12.2862512 
H    11.2107172    8.1238262    9.3485793 
H    11.6199365    9.1526046   10.7538544 
H    10.3953690    9.6992066    9.5651082 
C     9.7451792   10.5485629    5.9847157 
C     9.2271546   10.8967236    4.5812405 
C    10.8630965    9.5123419    5.8595108 
C    10.3089428   11.8077272    6.6596239 
H     8.8133577    9.9970616    4.0926410 
H    10.0361178   11.2992626    3.9454558 
H     8.4266094   11.6567604    4.6247050 
H    11.1493647   12.2257246    6.0772924 
H    10.6749405   11.5674542    7.6732573 
H     9.5440423   12.5988178    6.7523147 
H    10.4818240    8.5895283    5.3883735 
H    11.2578005    9.2487148    6.8565894 
H    11.6980604    9.8985128    5.2485863 
C     5.4492699   10.7674065    8.1393214 
C     5.3849245   11.0319174    9.6393925 
H     5.4244996   10.0817314   10.1998023 
H     4.4519509   11.5577248    9.9117291 
H     6.2398135   11.6506505    9.9649108 
C     5.4445349    6.0958380    9.9008950 
C     4.1491869    6.8613883    9.6626218 
H     3.2701399    6.2470195    9.9274947 
H     4.0595136    7.1480524    8.5996007 
H     4.1217043    7.7863155   10.2644324 
H     4.5484728   10.1986624    7.8378779 
H     5.5123606    5.8087419   10.9724412 
H     5.4039058    5.1469890    9.3299177 
H     4.5259609    6.6453288    5.9080191 
H     5.4060963    5.9190949    4.5500577 
H    11.2426046    6.5831315    7.0943726 
H     8.3483025    8.6723044   12.5578422 
H     7.4423852    5.2157474    5.0349904 
H     7.4649476   11.6873508    6.7753534 
H     7.4511493    6.7707393   11.4303369 
H     5.4022732   11.7340350    7.5932606 
