73
Energy = -1192.059104156
Y     7.6041946    7.9249116    7.8653757 
N     6.5937690    7.2129151    9.9094976 
N     8.6559237    8.1808383    9.9950907 
N     6.5756653   10.0062901    7.3664676 
N     8.7093809    9.6583978    6.6741604 
N     8.6269168    5.9527099    6.9856741 
N     6.5788975    6.5611784    6.2072522 
C     7.6047999    5.7277902    6.1835687 
H     7.5874590    4.8616173    5.4878766 
C     7.6319783    7.6244882   10.6119487 
C     7.6503302   10.4460078    6.7339025 
H     7.6597824   11.4457572    6.2616199 
C     5.5064691    6.4198663    5.2517226 
C     4.1550967    6.5256589    5.9529316 
C     5.6295493    7.4603008    4.1371012 
H     3.3204659    6.4038432    5.2398628 
H     4.0521478    7.5149687    6.4356068 
H     6.5925437    7.3531220    3.6082622 
H     5.5897379    8.4792360    4.5636758 
H     4.8142175    7.3579468    3.3979588 
C     9.7501267    5.0484884    7.1316872 
C     9.7129664    4.3887980    8.5114847 
C     9.8947792    3.9993674    6.0312943 
H     9.6433616    5.1563037    9.3016090 
H    10.6186162    3.7817802    8.6916746 
H     8.8287295    3.7315155    8.5989493 
H     9.9224114    4.4608813    5.0284479 
H     9.0710089    3.2628706    6.0512641 
H    10.8359772    3.4404487    6.1711346 
C     9.7485631    8.7474617   10.7498767 
C     9.7016214   10.2749689   10.6998505 
C    11.0845439    8.2214626   10.2304289 
H     9.7710232   10.6219620    9.6528631 
H    10.5329545   10.7232227   11.2735027 
H     8.7502048   10.6490987   11.1156649 
H    11.1275474    7.1211018   10.3030447 
H    11.2175846    8.4980017    9.1683151 
H    11.9305690    8.6413121   10.8031327 
C     9.9267494    9.9896554    5.9626074 
C     9.9800715   11.3926628    5.3631121 
C    10.1942380    8.9324555    4.8905393 
H     9.2144302   11.5312407    4.5782697 
H    10.9659470   11.5589189    4.8958899 
H     9.8379132   12.1758093    6.1284194 
H    10.1587626    7.9207086    5.3306022 
H     9.4209056    8.9830009    4.1022065 
H    11.1832995    9.0776342    4.4197357 
C     5.3780146   10.7989605    7.5587539 
C     5.2681388   12.0482832    6.6870175 
C     5.2169703   11.1545517    9.0379713 
H     6.0273855   12.8057633    6.9521618 
H     4.2781942   12.5148489    6.8288749 
H     5.3763381   11.8087399    5.6144462 
H     5.2738915   10.2453930    9.6605021 
H     6.0260536   11.8356430    9.3590836 
H     4.2476534   11.6496045    9.2301486 
C     5.5166049    6.4971126   10.5523624 
C     4.1749356    7.1606391   10.2527097 
C     5.5137762    5.0297053   10.1235251 
H     3.9824644    7.1628511    9.1645941 
H     4.1682098    8.2074006   10.6009203 
H     3.3448629    6.6252414   10.7471000 
H     6.4710880    4.5459332   10.3839210 
H     5.3843240    4.9530107    9.0284392 
H     4.6959543    4.4692009   10.6113073 
H     7.6426444    7.5016108   11.7206306 
H     5.6714129    6.5270699   11.6529074 
H     5.5688065    5.4135655    4.7821704 
H     4.5226808   10.1477806    7.2890379 
H     9.6515733    8.4397054   11.8140320 
H    10.6638837    5.6746524    7.0980987 
H    10.7587602    9.9239237    6.6946544 
H     4.0592386    5.7540412    6.7361451 
