91
Energy = -1427.454205171
Y     7.6052463    7.8830872    7.8186325 
N     6.5909774    7.0871487    9.8354211 
N     8.5905552    8.1737641    9.9824796 
N     6.5968385   10.0276621    7.4883695 
N     8.6117609    9.6115496    6.5039483 
N     8.6239239    5.8806623    6.9875128 
N     6.6195462    6.5255226    6.1103005 
C     7.6256953    5.6695715    6.1481461 
H     7.6328730    4.7828274    5.4808210 
C     7.5872419    7.5480830   10.5715151 
C     7.6037899   10.4337488    6.7351053 
H     7.6031000   11.4551899    6.3013927 
C     5.5634954    6.3831836    5.1083579 
C     4.5201933    7.4645195    5.3921204 
C     4.8851300    5.0073159    5.1889672 
C     6.1338200    6.5967022    3.6982992 
H     4.0814563    7.3240343    6.3953148 
H     3.7026394    7.4336830    4.6500846 
H     4.9857171    8.4646192    5.3616834 
H     6.8847998    5.8259251    3.4501431 
H     6.6252051    7.5831306    3.6307153 
H     5.3378200    6.5499642    2.9331904 
H     4.0496253    4.9410138    4.4695285 
H     5.5859084    4.1868393    4.9554728 
H     4.4827678    4.8350242    6.2021665 
C     9.6919466    4.8921339    7.1325182 
C    10.7442082    5.4939413    8.0645916 
C    10.3532641    4.5646799    5.7851199 
C     9.1417091    3.6050345    7.7646975 
H    11.1704440    6.4117393    7.6237746 
H    11.5678948    4.7812869    8.2462680 
H    10.2900212    5.7618344    9.0341283 
H     8.3775768    3.1383278    7.1177491 
H     8.6707046    3.8296664    8.7376424 
H     9.9445350    2.8638907    7.9285653 
H    11.2030063    3.8735205    5.9261083 
H     9.6502454    4.0800513    5.0849471 
H    10.7321334    5.4850110    5.3077086 
C     9.6437843    8.8001916   10.7808327 
C     9.0695423    9.9672923   11.5976270 
C    10.6899740    9.3423075    9.8067562 
C    10.3194156    7.7927192   11.7230467 
H     8.5806219   10.6968372   10.9285943 
H     9.8628737   10.4887181   12.1626981 
H     8.3152234    9.6147946   12.3234979 
H    10.7232567    6.9399730   11.1503117 
H     9.6170699    7.3965714   12.4772372 
H    11.1534016    8.2681983   12.2690074 
H    11.1319083    8.5197717    9.2183464 
H    10.2263296   10.0538660    9.1017001 
H    11.5040453    9.8595598   10.3444427 
C     9.6792937    9.9896619    5.5788268 
C     9.1297331   10.0944572    4.1482830 
C    10.7350820    8.8847090    5.6266586 
C    10.3366055   11.3187913    5.9800692 
H     8.6568868    9.1420302    3.8507651 
H     9.9329846   10.3262759    3.4260570 
H     8.3667837   10.8899257    4.0708166 
H    10.7183875   11.2630722    7.0143220 
H     9.6297722   12.1650165    5.9212042 
H    11.1836107   11.5521908    5.3109141 
H    11.1598240    8.8007550    6.6420627 
H    10.2853880    7.9113928    5.3646764 
H    11.5596801    9.0928116    4.9222836 
C     5.5307217   10.9557838    7.8637750 
C     6.0850964   12.0617500    8.7741434 
C     4.4820980   10.1545786    8.6360373 
C     4.8640721   11.5852263    6.6312316 
H     6.5679218   11.6183934    9.6626730 
H     5.2822147   12.7398717    9.1146976 
H     6.8402546   12.6714718    8.2466442 
H     4.4751149   10.7994789    5.9604806 
H     5.5678394   12.2100288    6.0538299 
H     4.0211167   12.2323658    6.9313272 
H     4.0507719    9.3655002    7.9958331 
H     4.9406925    9.6672350    9.5135987 
H     3.6611028   10.8063787    8.9831267 
C     5.5296321    6.2824942   10.4395463 
C     4.8639163    7.0062769   11.6194852 
C     6.0902352    4.9323588   10.9105170 
C     4.4783792    6.0353460    9.3567691 
H     5.5680747    7.1736141   12.4529056 
H     4.0218085    6.4119630   12.0163202 
H     4.4733090    7.9874882   11.2986457 
H     4.9375967    5.5405362    8.4838578 
H     4.0439887    6.9910010    9.0157386 
H     3.6602106    5.3971947    9.7347673 
H     5.2915042    4.2874356   11.3192120 
H     6.5691148    4.4034513   10.0679954 
H     6.8501951    5.0708183   11.7000493 
H     7.5811732    7.4108717   11.6729041 
