94
Energy = -1503.753577846
Y     7.7203328    8.1425052    7.9943147 
N     6.4751157    7.2362299    9.8858325 
N     8.0347268    8.8616224   10.2564935 
N     6.6019593   10.2605199    7.4820464 
N     8.4781649    9.6994511    6.3331590 
N     8.8478086    4.9103240    6.9262501 
N     7.0691154    6.3228959    6.3564163 
C     7.7723784    5.2344619    6.2157476 
H     7.4809479    4.4905914    5.4574486 
C     7.2171315    7.9408302   10.7240074 
C     7.5664375   10.6031476    6.6518743 
H     7.6203900   11.6319382    6.2362084 
C     5.9645638    6.5215294    5.3850395 
C     5.0505538    7.6142120    5.9381336 
C     5.1161958    5.2587483    5.1707478 
C     6.5502852    6.9870777    4.0462213 
H     4.5956329    7.3002995    6.8931703 
H     4.2340897    7.8348753    5.2288296 
H     5.5972538    8.5594675    6.1112106 
H     7.2184001    6.2176343    3.6187824 
H     7.1391823    7.9092825    4.1897354 
H     5.7504076    7.1899656    3.3120434 
H     4.2323912    5.5042369    4.5570178 
H     5.6570101    4.4578130    4.6377332 
H     4.7609522    4.8563577    6.1353664 
C     9.6645984    3.7186667    6.6812546 
C    10.7231212    3.6902626    7.7851383 
C    10.3523197    3.8131020    5.3123419 
C     8.8110684    2.4488970    6.7626942 
H    11.3331249    4.6097825    7.7632175 
H    11.3944727    2.8252122    7.6540897 
H    10.2488327    3.6168166    8.7793303 
H     8.0446888    2.4129663    5.9681984 
H     8.2977734    2.3910939    7.7377684 
H     9.4450951    1.5530581    6.6467537 
H    11.0090732    2.9425591    5.1383942 
H     9.6110571    3.8437898    4.4938376 
H    10.9639063    4.7299338    5.2515101 
C     8.8960413    9.6259472   11.1527647 
C     8.0611574   10.4562537   12.1391203 
C     9.7259557   10.5717246   10.2811756 
C     9.8501481    8.7070951   11.9327379 
H     7.3687082   11.1171531   11.5893011 
H     8.7068976   11.0829820   12.7803935 
H     7.4580061    9.8102687   12.8014571 
H    10.4570369    8.1017355   11.2359997 
H     9.2986631    8.0125750   12.5906290 
H    10.5391301    9.2939547   12.5664768 
H    10.3435045    9.9965886    9.5687309 
H     9.0666757   11.2347031    9.6952031 
H    10.3974298   11.1976177   10.8953123 
C     9.6039022   10.0309456    5.4631459 
C     9.1330588   10.6502714    4.1384892 
C    10.3436411    8.7248487    5.1625218 
C    10.5636609   10.9993449    6.1707915 
H     8.4182217    9.9779579    3.6324460 
H     9.9876606   10.8190529    3.4592572 
H     8.6362321   11.6246398    4.2900700 
H    10.9249482   10.5567733    7.1150014 
H    10.0602456   11.9522448    6.4146785 
H    11.4388775   11.2315538    5.5372155 
H    10.6390848    8.2267845    6.1017029 
H     9.6867901    8.0295002    4.6107319 
H    11.2443559    8.9114415    4.5504914 
C     5.5774382   11.2210923    7.8838898 
C     6.1953034   12.4301082    8.6023148 
C     4.6376484   10.4993186    8.8519832 
C     4.7706792   11.7025230    6.6682640 
H     6.7701200   12.0949437    9.4827025 
H     5.4132457   13.1318519    8.9436046 
H     6.8798632   12.9897641    7.9405777 
H     4.3180591   10.8437197    6.1422882 
H     5.4081729   12.2453235    5.9477516 
H     3.9594185   12.3863505    6.9761865 
H     4.1624589    9.6343412    8.3573257 
H     5.2008172   10.1213583    9.7224435 
H     3.8409172   11.1751015    9.2109784 
C     5.6564310    6.1416453   10.4069283 
C     4.7392115    6.6056984   11.5489919 
C     6.5537034    4.9915029   10.8906112 
C     4.7782982    5.6332496    9.2643481 
H     5.3072283    6.9173184   12.4428827 
H     4.0616145    5.7909467   11.8594493 
H     4.1256810    7.4624321   11.2194201 
H     5.4051223    5.3384884    8.4058472 
H     4.0858467    6.4257274    8.9307873 
H     4.1773882    4.7620709    9.5809374 
H     5.9548707    4.1348503   11.2505730 
H     7.2018382    4.6447830   10.0659980 
H     7.2078405    5.3194598   11.7180408 
H     7.1646880    7.7429061   11.8153489 
O     9.5814102    7.0947489    8.2180528 
H     9.2519293    5.6768348    7.5360917 
H    10.2310426    7.1641945    8.9270023 
